<routes>

    <vType accel="6.0" decel="8.0" id="Car" length="4.0" maxSpeed="30.0" sigma="0.2" carFollowModel="CACC" actionStepLength="0" laneChangeModel="LC2013" />
    <vType accel="1.0" decel="1.0" id="obstacle" length="1.0" maxSpeed="1" sigma="0.0" />
    <vType accel="6.0" decel="8.0" id="Car2" length="4.0" maxSpeed="10" sigma="0" actionStepLength="0" />
    <vType accel="0.1" decel="0.1" id="stopCar" length="4.0" maxSpeed="0.1" sigma="0" actionStepLength="0" />

    <route id="route0" edges="1to2" />

    <vehicle depart="0" id="veh0" route="route0" type="Car" departLane="0" departPos="1290" departSpeed="0" />
    <vehicle depart="0" id="veh1" route="route0" type="Car" departLane="0" departPos="1285" departSpeed="0" />
    <vehicle depart="0" id="veh2" route="route0" type="Car" departLane="0" departPos="1270" departSpeed="0" />
    <vehicle depart="0" id="veh3" route="route0" type="Car" departLane="0" departPos="1255" departSpeed="0" />

    <vehicle depart="0" id="veh4" route="route0" type="Car" departLane="0" departPos="1240" departSpeed="0" />
    <vehicle depart="0" id="veh5" route="route0" type="Car" departLane="0" departPos="1225" departSpeed="0" />
    <vehicle depart="0" id="veh6" route="route0" type="Car" departLane="0" departPos="1210" departSpeed="0" />
    <vehicle depart="0" id="veh7" route="route0" type="Car" departLane="0" departPos="1195" departSpeed="0" />

    <vehicle depart="0" id="veh8" route="route0" type="Car" departLane="0" departPos="1180" departSpeed="0" />
    <vehicle depart="0" id="veh9" route="route0" type="Car" departLane="0" departPos="1165" departSpeed="0" />
    <vehicle depart="0" id="veh10" route="route0" type="Car" departLane="0" departPos="1150" departSpeed="0" />

    <!-- <vehicle depart="0" id="veh11" route="route0" type="Car" departLane="1" departPos="-100" departSpeed="0"/> -->


    <!-- <vehicle depart="0" id="no0" route="route0" type="Car2" departLane="1" departPos="1660" departSpeed="0" color="51,255,255"/>
    <vehicle depart="0" id="no1" route="route0" type="Car2" departLane="1" departPos="1600" departSpeed="0" color="51,255,255"/>
    <vehicle depart="0" id="no2" route="route0" type="Car2" departLane="1" departPos="1540" departSpeed="0" color="51,255,255"/>
    <vehicle depart="0" id="no3" route="route0" type="Car2" departLane="1" departPos="1480" departSpeed="0" color="51,255,255"/>
    <vehicle depart="0" id="no4" route="route0" type="Car2" departLane="1" departPos="1420" departSpeed="0" color="51,255,255"/>
    <vehicle depart="0" id="no5" route="route0" type="Car2" departLane="1" departPos="1360" departSpeed="0" color="51,255,255"/>
    <vehicle depart="0" id="no6" route="route0" type="Car2" departLane="1" departPos="1300" departSpeed="0" color="51,255,255"/>
    <vehicle depart="0" id="no7" route="route0" type="Car2" departLane="1" departPos="1240" departSpeed="0" color="51,255,255"/>
    <vehicle depart="0" id="no8" route="route0" type="Car2" departLane="1" departPos="1180" departSpeed="0" color="51,255,255"/>
    <vehicle depart="0" id="no9" route="route0" type="Car2" departLane="1" departPos="1120" departSpeed="0" color="51,255,255"/>
    <vehicle depart="0" id="no10" route="route0" type="Car2" departLane="1" departPos="1060" departSpeed="0" color="51,255,255"/>
    <vehicle depart="0" id="no11" route="route0" type="Car2" departLane="1" departPos="1000" departSpeed="0" color="51,255,255"/> -->

<!-- 
    <vehicle depart="0" id="no0" route="route0" type="Car2" departLane="1" departPos="1780" departSpeed="0" color="51,255,255" />
    <vehicle depart="0" id="no1" route="route0" type="Car2" departLane="1" departPos="1760" departSpeed="0" color="51,255,255" />
    <vehicle depart="0" id="no2" route="route0" type="Car2" departLane="1" departPos="1720" departSpeed="0" color="51,255,255" />
    <vehicle depart="0" id="no3" route="route0" type="Car2" departLane="1" departPos="1670" departSpeed="0" color="51,255,255" />
    <vehicle depart="0" id="no4" route="route0" type="Car2" departLane="1" departPos="1640" departSpeed="0" color="51,255,255" />
    <vehicle depart="0" id="no5" route="route0" type="Car2" departLane="1" departPos="1600" departSpeed="0" color="51,255,255" />
    <vehicle depart="0" id="no6" route="route0" type="Car2" departLane="1" departPos="1560" departSpeed="0" color="51,255,255" />
    <vehicle depart="0" id="no7" route="route0" type="Car2" departLane="1" departPos="1520" departSpeed="0" color="51,255,255" />
    <vehicle depart="0" id="no8" route="route0" type="Car2" departLane="1" departPos="1480" departSpeed="0" color="51,255,255" />
    <vehicle depart="0" id="no9" route="route0" type="Car2" departLane="1" departPos="1430" departSpeed="0" color="51,255,255" />
    <vehicle depart="0" id="no10" route="route0" type="Car2" departLane="1" departPos="1400" departSpeed="0" color="51,255,255" />
    <vehicle depart="0" id="no11" route="route0" type="Car2" departLane="1" departPos="1370" departSpeed="0" color="51,255,255" /> -->


    <vehicle depart="0" id="no0" route="route0" type="Car2" departLane="1" departPos="1820" departSpeed="0" color="51,255,255" />
    <vehicle depart="0" id="no1" route="route0" type="Car2" departLane="1" departPos="1760" departSpeed="0" color="51,255,255" />
    <vehicle depart="0" id="no2" route="route0" type="Car2" departLane="1" departPos="1720" departSpeed="0" color="51,255,255" />
    <vehicle depart="0" id="no3" route="route0" type="Car2" departLane="1" departPos="1670" departSpeed="0" color="51,255,255" />
    <vehicle depart="0" id="no4" route="route0" type="Car2" departLane="1" departPos="1635" departSpeed="0" color="51,255,255" />
    <vehicle depart="0" id="no5" route="route0" type="Car2" departLane="1" departPos="1600" departSpeed="0" color="51,255,255" />
    <vehicle depart="0" id="no6" route="route0" type="Car2" departLane="1" departPos="1560" departSpeed="0" color="51,255,255" />
    <vehicle depart="0" id="no7" route="route0" type="Car2" departLane="1" departPos="1520" departSpeed="0" color="51,255,255" />
    <vehicle depart="0" id="no8" route="route0" type="Car2" departLane="1" departPos="1480" departSpeed="0" color="51,255,255" />
    <vehicle depart="0" id="no9" route="route0" type="Car2" departLane="1" departPos="1430" departSpeed="0" color="51,255,255" />
    <vehicle depart="0" id="no10" route="route0" type="Car2" departLane="1" departPos="1380" departSpeed="0" color="51,255,255" />
    <vehicle depart="0" id="no11" route="route0" type="Car2" departLane="1" departPos="1340" departSpeed="0" color="51,255,255" />


    <vehicle depart="0" id="stop" route="route0" type="stopCar" departLane="0" departPos="1860" departSpeed="0" color="255,0,0" />


</routes>