<nodes>
<node id="n1" x = "-0" y="0" type="priority"/>
<node id="n2" x = "5000" y="0" type="priority"/>
<!-- <node id="n3" x = "-150" y="200" type="traffic_light"/>
<node id="n4" x = "0" y="0"/>
<node id="n5" x = "150" y="200"/> -->
</nodes>